this is a test !!!
new line...

next line !
